   16

C       1.241952    0.763225    0.060813
N       2.427383    1.508678    0.048758
C      -0.033392    1.421713    0.005603
H      -0.105791    2.532352   -0.014994
C      -1.228528    0.662241   -0.025813
Cl     -2.773668    1.501979   -0.082083
C      -1.199514   -0.753313   -0.005780
H      -2.148268   -1.340071   -0.015750
C       0.069674   -1.400518    0.022931
C       0.074386   -2.899952    0.009163
C       1.283879   -0.662996    0.051228
H       2.251919   -1.223123    0.052158
H       2.342276    2.520217    0.222504
H       3.258756    1.083193    0.485652
O       1.088432   -3.610385   -0.015210
H      -0.977766   -3.355594    0.018904
